<?xml version="1.0" encoding="UTF-8"?>
<net version="1.6" xmlns:xsi="http://www.w3.org/2001/XMLSchema-instance" xsi:noNamespaceSchemaLocation="http://sumo.dlr.de/xsd/net_file.xsd">
    <location netOffset="0.00,0.00" convBoundary="0.00,0.00,1000.00,1000.00" origBoundary="-10000000000.00,-10000000000.00,10000000000.00,10000000000.00" projParameter="!"/>
    
    <edge id="1to2" from="1" to="2" priority="1" numberOfLanes="2" speed="13.89" length="500.00">
        <lane id="1to2_0" index="0" speed="13.89" length="500.00" shape="0.00,500.00 500.00,500.00"/>
        <lane id="1to2_1" index="1" speed="13.89" length="500.00" shape="0.00,503.00 500.00,503.00"/>
    </edge>
    
    <edge id="2to3" from="2" to="3" priority="1" numberOfLanes="2" speed="13.89" length="500.00">
        <lane id="2to3_0" index="0" speed="13.89" length="500.00" shape="500.00,500.00 500.00,0.00"/>
        <lane id="2to3_1" index="1" speed="13.89" length="500.00" shape="503.00,500.00 503.00,0.00"/>
    </edge>
    
    <edge id="3to2" from="3" to="2" priority="1" numberOfLanes="2" speed="13.89" length="500.00">
        <lane id="3to2_0" index="0" speed="13.89" length="500.00" shape="500.00,0.00 500.00,500.00"/>
        <lane id="3to2_1" index="1" speed="13.89" length="500.00" shape="503.00,0.00 503.00,500.00"/>
    </edge>
    
    <edge id="2to1" from="2" to="1" priority="1" numberOfLanes="2" speed="13.89" length="500.00">
        <lane id="2to1_0" index="0" speed="13.89" length="500.00" shape="500.00,500.00 0.00,500.00"/>
        <lane id="2to1_1" index="1" speed="13.89" length="500.00" shape="503.00,500.00 0.00,503.00"/>
    </edge>
    
    <junction id="1" type="dead_end" x="0.00" y="500.00" incLanes="" intLanes="" shape="0.00,495.00 0.00,505.00"/>
    <junction id="2" type="dead_end" x="500.00" y="500.00" incLanes="1to2_0 1to2_1 3to2_0 3to2_1" intLanes="" shape="495.00,495.00 505.00,495.00 505.00,505.00 495.00,505.00"/>
    <junction id="3" type="dead_end" x="500.00" y="0.00" incLanes="" intLanes="" shape="495.00,0.00 505.00,0.00"/>
</net>