<?xml version="1.0" encoding="UTF-8"?>
<routes xmlns:xsi="http://www.w3.org/2001/XMLSchema-instance" xsi:noNamespaceSchemaLocation="http://sumo.dlr.de/xsd/routes_file.xsd">
    <vType id="car" accel="2.6" decel="4.5" sigma="0.5" length="5" maxSpeed="50"/>
    <route id="route1" edges="1to2"/>
    <route id="route2" edges="2to1"/>
    <vehicle id="veh0" type="car" route="route1" depart="0" departSpeed="10"/>
    <vehicle id="veh1" type="car" route="route2" depart="10" departSpeed="10"/>
    <vehicle id="veh2" type="car" route="route1" depart="20" departSpeed="10"/>
</routes>